// Generated for: spectre
// Generated on: Feb 24 13:16:10 2023
// Design library name: Design
// Design cell name: inverter_schematic
// Design view name: schematic
simulator lang=spectre
global 0 vdd!
