// Generated for: spectre
// Generated on: Mar  3 00:06:55 2023
// Design library name: Design
// Design cell name: singlebitadder_schematic
// Design view name: schematic
simulator lang=spectre
global 0 vdd!
