// Generated for: spectre
// Generated on: Apr 12 18:30:27 2023
// Design library name: Design
// Design cell name: lab9_Sim
// Design view name: schematic
simulator lang=spectre
global 0 vdd!
