// Generated for: spectre
// Generated on: Feb 28 22:09:23 2023
// Design library name: Design
// Design cell name: NAND_schematic
// Design view name: schematic
simulator lang=spectre
global 0 vdd!
