// Generated for: spectre
// Generated on: Mar 23 12:59:44 2023
// Design library name: Design
// Design cell name: DFFSimulated
// Design view name: schematic
simulator lang=spectre
global 0 vdd!
