// Generated for: spectre
// Generated on: Mar  1 22:55:30 2023
// Design library name: Design
// Design cell name: XOR_schematic
// Design view name: schematic
simulator lang=spectre
global 0 vdd!
