// Generated for: spectre
// Generated on: Mar 23 12:29:11 2023
// Design library name: Design
// Design cell name: DFFSimulatedAC
// Design view name: schematic
simulator lang=spectre
global 0 vdd!
